#Generated by Multiwfn
data_system
_cell_angle_alpha  90.000
_cell_angle_beta  116.104
_cell_angle_gamma  90.000
_cell_length_a   17.523000
_cell_length_b   17.644000
_cell_length_c   14.802000
loop_
_symmetry_equiv_pos_as_xyz
x,y,z
loop_
_atom_site_label
_atom_site_fract_x
_atom_site_fract_y
_atom_site_fract_z
O       0.07114818      0.16169855      0.25170173
O       0.22375912      0.09787248      0.34525813
O       0.17734857      0.15296932      0.66650345
O       0.20596738      0.24991204      0.31816233
O       0.11196541      0.36578907      0.42229627
O       0.18187245      0.50013609      0.44450154
O       0.25692081      0.38033349      0.41227993
O       0.10345902      0.22746977      0.49504775
O      -0.01234792      0.33358770      0.46806913
O      -0.00769932      0.26855297      0.31132728
Si      0.16966885      0.16620026      0.27048590
Si      0.20126468      0.41108014      0.46777998
Si      0.19164288      0.18883427      0.57444438
Si      0.05064985      0.29836733      0.42483096
Si     -0.01197303      0.21585728      0.21899340
O       0.90441964      0.16159167      0.68373275
O       0.90441603      0.83868967      0.68372832
O       0.07115071      0.83857081      0.25170053
O       0.57106263      0.66175378      0.25131354
O       0.40456953      0.66189150      0.68393770
O       0.40456218      0.33839181      0.68393217
O       0.57092685      0.33828892      0.25149720
O       0.75185915      0.09794079      0.59019061
O       0.75181018      0.90229746      0.59014086
O       0.22375752      0.90240070      0.34525417
O       0.72364196      0.59788470      0.34521862
O       0.25143857      0.60100867      0.58910190
O       0.25143581      0.39926199      0.58909877
O       0.72358927      0.40235278      0.34519561
O       0.79807201      0.15309824      0.26877198
O       0.79807055      0.84716977      0.26877420
O       0.17734893      0.84729886      0.66650311
O       0.67776320      0.65785358      0.66673523
O       0.30242904      0.65334837      0.27240197
O       0.30240335      0.34693406      0.27241173
O       0.67774154      0.34238945      0.66667717
O       0.76987443      0.24968931      0.61139215
O       0.76991349      0.75056260      0.61142414
O       0.20596890      0.75035576      0.31816981
O       0.70564232      0.74995691      0.31833520
O       0.27003545      0.75070337      0.61693334
O       0.27003616      0.24956647      0.61693103
O       0.70564674      0.25028717      0.31835280
O       0.86281187      0.36592169      0.51244221
O       0.86281862      0.63434641      0.51244990
O       0.11196726      0.63448091      0.42229633
O       0.61256949      0.86614476      0.42252523
O       0.36292617      0.86610545      0.51252254
O       0.36291692      0.13416044      0.51253666
O       0.61272855      0.13396840      0.42269767
O       0.79347469      0.50012507      0.49546617
O       0.68196138      0.00009787      0.43957249
O       0.29365147      0.00013287      0.49555809
O       0.71444158      0.37999663      0.51797006
O       0.71446536      0.62024918      0.51799249
O       0.25693006      0.61993498      0.41228393
O       0.76108932      0.87972836      0.41723989
O       0.21433435      0.87984446      0.51775967
O       0.21432780      0.12042292      0.51776043
O       0.76111365      0.12051897      0.41724826
O       0.87225456      0.22761951      0.44044407
O       0.87225416      0.77264788      0.44044406
O       0.10345865      0.77279965      0.49504780
O       0.60334307      0.72713921      0.48985839
O       0.37172450      0.72703347      0.44509607
O       0.37173127      0.27323040      0.44509497
O       0.60321848      0.27306753      0.48964507
O      -0.01234704      0.66668181      0.46807093
O       0.48765648      0.83310432      0.46747180
O       0.48763954      0.16712329      0.46757000
O       0.98240603      0.26940298      0.62648799
O       0.98240685      0.73087115      0.62649138
O      -0.00770103      0.73171579      0.31132701
O       0.49241412      0.77056933      0.30729772
O       0.48304627      0.77037359      0.62757099
O       0.48304822      0.22999253      0.62755914
O       0.49235219      0.22737095      0.30648918
Si      0.80568745      0.16709156      0.66380669
Si      0.80568107      0.83317072      0.66379957
Si      0.16967307      0.83406507      0.27048977
Si      0.66964433      0.66627986      0.27034784
Si      0.30644701      0.66756486      0.66539728
Si      0.30644263      0.33270691      0.66539676
Si      0.66952553      0.33393396      0.27036394
Si      0.77359408      0.41158279      0.46722903
Si      0.77360938      0.58867257      0.46725030
Si      0.20127030      0.58919313      0.46777922
Si      0.70200684      0.91166703      0.46798000
Si      0.27360992      0.91172955      0.46729092
Si      0.27360165      0.08853448      0.46729373
Si      0.70212715      0.08849946      0.46805752
Si      0.78390512      0.18919174      0.36090443
Si      0.78390024      0.81106333      0.36089920
Si      0.19164345      0.81143547      0.57444178
Si      0.69112179      0.68996715      0.57230433
Si      0.28445873      0.68938501      0.36201259
Si      0.28445187      0.31087972      0.36202679
Si      0.69104292      0.31025741      0.57220213
Si      0.92484889      0.29826167      0.51183552
Si      0.92485195      0.70200663      0.51184189
Si      0.05065054      0.70190129      0.42483100
Si      0.54998971      0.79872821      0.42218208
Si      0.42540158      0.79856623      0.51284710
Si      0.42538687      0.20170921      0.51289825
Si      0.55004132      0.20119767      0.42228159
Si     -0.01196956      0.78441209      0.21899545
Si      0.48799652      0.71621968      0.21637148
Si      0.48801599      0.28342789      0.21676693
O       0.07078889      0.16189292      0.75136221
O       0.22403401      0.10081286      0.84542209
O       0.17745631      0.15280511      1.16675245
O       0.20538372      0.25070887      0.81805389
O       0.11249802      0.36580282      0.92245827
O       0.18208193      0.50012703      0.94474500
O       0.26098923      0.38007990      0.91720026
O       0.10356120      0.22742975      0.99511156
O      -0.01240497      0.33342859      0.96800224
O      -0.00766268      0.26861268      0.81121536
Si      0.16896494      0.16748949      0.76956387
Si      0.20215613      0.41109645      0.96888052
Si      0.19175148      0.18873915      1.07473128
Si      0.05084381      0.29839068      0.92483740
Si     -0.01247652      0.21592435      0.71850585
O       0.90463398      0.16180495      1.18389441
O       0.90463778      0.83846613      1.18389664
O       0.07078885      0.83837727      0.75136293
O       0.57088419      0.66202588      0.75169574
O       0.40486912      0.66191551      1.18344529
O       0.40503522      0.33811785      1.18381457
O       0.57089121      0.33825692      0.75168417
O       0.75143407      0.10094917      1.08956888
O       0.75143407      0.89932694      1.08957087
O       0.22404043      0.89944637      0.84542721
O       0.72399316      0.60086344      0.84498647
O       0.25156579      0.60118845      1.09022464
O       0.25162412      0.39903316      1.09024843
O       0.72399364      0.39939545      0.84498027
O       0.79790390      0.15744589      0.76815874
O       0.79790313      0.84282675      0.76815620
O       0.17745934      0.84745984      1.16675321
O       0.67751410      0.65282827      1.16670444
O       0.29801910      0.65290623      0.76845921
O       0.29801633      0.34736365      0.76845573
O       0.67747108      0.34743108      1.16674851
O       0.77010105      0.25074447      1.11699784
O       0.77010800      0.74953762      1.11699193
O       0.20538585      0.74955792      0.81805581
O       0.70532932      0.75036416      0.82331342
O       0.27007608      0.75055546      1.11730126
O       0.27006826      0.24969702      1.11730361
O       0.70532906      0.24990712      0.82330970
O       0.86304500      0.36608982      1.01294742
O       0.86304830      0.63417813      1.01294939
O       0.11248683      0.63446531      0.92243857
O       0.61257349      0.86582390      0.92228036
O       0.36296000      0.86580023      1.01273405
O       0.36295022      0.13446257      1.01271588
O       0.61257359      0.13444653      0.92227729
O       0.79338765      0.50013068      0.99037845
O       0.68187044      0.00013555      0.94435741
O       0.29356121      0.00013174      0.99074956
O       0.71440914      0.38008919      1.01784756
O       0.71441386      0.62017906      1.01783210
O       0.26098477      0.62018597      0.91720219
O       0.76110325      0.88063926      0.91671443
O       0.21447585      0.88000394      1.01797660
O       0.21447598      0.12026016      1.01797487
O       0.76110432      0.11962932      0.91671369
O       0.87196706      0.22706804      0.94496979
O       0.87196605      0.77320105      0.94496818
O       0.10356530      0.77283605      0.99511313
O       0.60351244      0.72744646      0.99509352
O       0.37195340      0.72747530      0.93995848
O       0.37194550      0.27278944      0.93994361
O       0.60351204      0.27282409      0.99508915
O      -0.01240588      0.66684047      0.96800021
O       0.48776666      0.83380065      0.96744984
O       0.48776544      0.16645758      0.96743012
O       0.98310003      0.26980167      1.12757679
O       0.98309819      0.73046868      1.12757606
O      -0.00766436      0.73165963      0.81121327
O       0.49230432      0.76856830      0.81122771
O       0.48318200      0.76859845      1.12366472
O       0.48318798      0.23165254      1.12356384
O       0.49230759      0.23170231      0.81122468
Si      0.80643440      0.16753578      1.16562644
Si      0.80643959      0.83274317      1.16562875
Si      0.16896263      0.83277627      0.76956098
Si      0.66892861      0.66835870      0.77013299
Si      0.30702654      0.66764259      1.16674692
Si      0.30707031      0.33257648      1.16680293
Si      0.66892862      0.33190891      0.77010797
Si      0.77340137      0.41113882      0.96642271
Si      0.77341065      0.58912195      0.96642179
Si      0.20213692      0.58916101      0.96886582
Si      0.70209759      0.91124508      0.96833136
Si      0.27346506      0.91121206      0.96665125
Si      0.27346600      0.08905434      0.96664819
Si      0.70209597      0.08902734      0.96833105
Si      0.78413503      0.18964149      0.86249531
Si      0.78413501      0.81062919      0.86249215
Si      0.19175973      0.81151838      1.07473814
Si      0.69172651      0.68876721      1.07451682
Si      0.28376078      0.68877385      0.86059913
Si      0.28376345      0.31148939      0.86059623
Si      0.69170552      0.31151120      1.07454732
Si      0.92537194      0.29857423      1.01309592
Si      0.92537242      0.70169560      1.01309484
Si      0.05084177      0.70187848      0.92483350
Si      0.55103414      0.79843950      0.92460133
Si      0.42455943      0.79849670      1.01024887
Si      0.42455389      0.20176153      1.01022067
Si      0.55103259      0.20182901      0.92460360
Si     -0.01248337      0.78435201      0.71850483
Si      0.48781361      0.71600294      0.71860799
Si      0.48781628      0.28429966      0.71863953
